packages/pydgrid/pydgrid-0.5.3.tar.gz/pydgrid-0.5.3/examples/cigre/opendss/cigre_lv_VLN_Node.Txt

LINE-GROUND and LINE-LINE VOLTAGES BY BUS & NODE

Bus       Node    VLN (kV)   Angle      pu     Base kV    Node-Node   VLL (kV)  Angle      pu

SOURCEBUS 1       66.395 /_    0.0     287.5     0.400        1-2        115 /_   30.0     287.5
   -      2       66.395 /_ -120.0     287.5     0.400        2-3        115 /_  -90.0     287.5
   -      3       66.395 /_  120.0     287.5     0.400        3-1        115 /_  150.0     287.5
R10 ..... 1      0.23094 /_   10.0         1     0.400        1-2        0.4 /_   40.0         1
   -      2      0.23094 /_ -110.0         1     0.400        2-3        0.4 /_  -80.0         1
   -      3      0.23094 /_  130.0         1     0.400        3-1        0.4 /_  160.0         1
   -      4   2.834E-009 /_ -165.1 1.2272E-008     0.400
R1 ...... 1      0.23094 /_   10.0         1     0.400        1-2        0.4 /_   40.0         1
   -      2      0.23094 /_ -110.0         1     0.400        2-3        0.4 /_  -80.0         1
   -      3      0.23094 /_  130.0         1     0.400        3-1        0.4 /_  160.0         1
   -      4   2.6891E-009 /_ -169.8 1.1644E-008     0.400
